Version 4
SHEET 1 1024 680
WIRE 96 16 -144 16
WIRE 384 16 96 16
WIRE 736 16 544 16
WIRE -144 64 -144 16
WIRE 96 64 96 16
WIRE 384 64 384 16
WIRE 208 128 96 128
WIRE 384 128 288 128
WIRE 544 128 544 16
WIRE -144 192 -144 144
WIRE 208 224 128 224
WIRE 336 224 288 224
WIRE 96 240 96 128
WIRE 384 240 384 128
WIRE 384 256 384 240
WIRE 128 304 128 224
WIRE 208 304 128 304
WIRE 336 304 336 224
WIRE 336 304 288 304
WIRE -144 352 -144 272
WIRE -32 352 -144 352
WIRE 32 352 -32 352
WIRE 96 352 96 304
WIRE 384 352 384 304
WIRE 384 352 96 352
WIRE 544 352 544 208
WIRE 544 352 384 352
WIRE -32 384 -32 352
WIRE 32 464 32 352
WIRE 736 464 736 16
WIRE 736 464 32 464
FLAG -32 384 0
FLAG 336 304 0
SYMBOL diode 80 64 R0
SYMATTR InstName D1
SYMBOL diode 368 240 R0
SYMATTR InstName D2
SYMBOL diode 112 304 R180
WINDOW 0 24 64 Left 2
WINDOW 3 24 0 Left 2
SYMATTR InstName D3
SYMBOL diode 400 128 R180
WINDOW 0 24 64 Left 2
WINDOW 3 24 0 Left 2
SYMATTR InstName D4
SYMBOL ind2 304 112 R90
WINDOW 0 5 56 VBottom 2
WINDOW 3 -24 86 VTop 2
SYMATTR InstName L1
SYMATTR Value 1
SYMATTR Type ind
SYMBOL ind2 304 240 M270
WINDOW 0 -23 44 VTop 2
WINDOW 3 5 78 VBottom 2
SYMATTR InstName L2
SYMATTR Value 1
SYMATTR Type ind
SYMBOL voltage 192 304 R270
WINDOW 0 -35 6 VTop 2
WINDOW 3 -88 56 VBottom 2
WINDOW 123 0 0 Left 2
SYMATTR InstName V1
SYMATTR Value SINE(0 10 50)
SYMATTR SpiceLine Rser=100
SYMBOL voltage -144 176 R0
WINDOW 123 0 0 Left 2
WINDOW 39 24 124 Left 2
SYMATTR InstName V2
SYMATTR Value SINE(0 100m 10)
SYMATTR SpiceLine Rser=0
SYMBOL res 528 112 R0
SYMATTR InstName R1
SYMATTR Value 10k
SYMBOL res -160 48 R0
SYMATTR InstName R2
SYMATTR Value 100
TEXT 200 176 Left 2 !K1 L1 L2 1
TEXT -178 426 Left 2 !.tran 0.2
