Version 4
SHEET 1 1008 964
WIRE 64 80 -80 80
WIRE 320 80 160 80
WIRE 400 80 320 80
WIRE 496 80 400 80
WIRE 672 80 576 80
WIRE 896 80 672 80
WIRE -80 160 -80 80
WIRE 672 176 672 80
WIRE 896 176 896 80
WIRE 400 192 400 80
WIRE 144 272 144 208
WIRE 240 272 240 224
WIRE -80 336 -80 240
WIRE 400 336 400 256
WIRE 672 336 672 240
WIRE 672 336 400 336
WIRE 896 336 896 256
WIRE 896 336 672 336
WIRE 672 384 672 336
WIRE 144 608 144 528
WIRE 240 624 240 528
WIRE 320 624 320 80
WIRE 144 736 144 688
FLAG 672 384 0
FLAG -80 80 Vin
IOPIN -80 80 In
FLAG 896 80 Vout
IOPIN 896 80 Out
FLAG -80 336 0
FLAG 144 736 0
FLAG 240 224 0
SYMBOL voltage -80 144 R0
WINDOW 123 0 0 Left 0
WINDOW 39 0 0 Left 0
SYMATTR InstName Vg
SYMATTR Value 24
SYMBOL nmos 64 128 R270
SYMATTR InstName M1
SYMATTR Value IRFS4010
SYMBOL ind 480 96 R270
WINDOW 0 32 56 VTop 2
WINDOW 3 5 56 VBottom 2
SYMATTR InstName L1
SYMATTR Value 40µ
SYMATTR SpiceLine Rser=100m
SYMBOL cap 656 176 R0
SYMATTR InstName Capacitor
SYMATTR Value 22µ
SYMATTR Prefix C1
SYMBOL res 880 160 R0
SYMATTR InstName Rload
SYMATTR Value 5
SYMBOL res 128 112 R0
SYMATTR InstName R1
SYMATTR Value 5
SYMBOL diode 416 256 R180
WINDOW 0 24 64 Left 2
WINDOW 3 -154 0 Left 2
SYMATTR InstName D1
SYMATTR Value RF1601NS2D
SYMBOL voltage 224 624 M90
WINDOW 0 -230 74 Left 2
WINDOW 123 0 0 Left 0
WINDOW 39 0 0 Left 0
SYMATTR InstName V_driver_supply
SYMATTR Value 12
SYMBOL PowerProducts\\ADP3654 144 400 R270
SYMATTR InstName U1
SYMBOL voltage 144 592 R0
WINDOW 123 0 0 Left 0
WINDOW 39 0 0 Left 0
SYMATTR InstName V1
SYMATTR Value PULSE(0 5 0 1n 1n {D*Ts} {Ts})
TEXT 280 -160 Left 2 !.param D=0.4
TEXT 280 -120 Left 2 !.param Ts=10µ
TEXT 288 -72 Left 2 !.tran 0 5m 0 20e-9 startup uic
TEXT 296 -224 Left 2 !.options reltol=0.005
